09_TOW/QSTS/DSS/Elements/Loads.DSS
New Load.259149647_1 Phases=1 Bus1=259149647.1 kV=13.8564 KW=6.6519 KVAR=2.1864 daily=LS_PhaseA daily=LS_PhaseA
New Load.259149647_2 Phases=1 Bus1=259149647.2 kV=13.8564 KW=8.6281 KVAR=2.8359 daily=LS_PhaseB daily=LS_PhaseB
New Load.259149647_3 Phases=1 Bus1=259149647.3 kV=13.8564 KW=6.6519 KVAR=2.1864 daily=LS_PhaseC daily=LS_PhaseC
New Load.260860136_1 Phases=1 Bus1=260860136.1 kV=13.8564 KW=8.6281 KVAR=2.8359 daily=LS_PhaseA daily=LS_PhaseA
New Load.254399551_2 Phases=1 Bus1=254399551.2 kV=13.8564 KW=8.6281 KVAR=2.8359 daily=LS_PhaseB daily=LS_PhaseB
New Load.254420503_3 Phases=1 Bus1=254420503.3 kV=13.8564 KW=6.6519 KVAR=2.1864 daily=LS_PhaseC daily=LS_PhaseC
New Load.254421101_3 Phases=1 Bus1=254421101.3 kV=13.8564 KW=3.9911 KVAR=1.3118 daily=LS_PhaseC daily=LS_PhaseC
New Load.254412747_3 Phases=1 Bus1=254412747.3 kV=13.8564 KW=50.3897 KVAR=16.5623 daily=LS_PhaseC daily=LS_PhaseC
New Load.260110134_2 Phases=1 Bus1=260110134.2 kV=13.8564 KW=3.0173 KVAR=0.99175 daily=LS_PhaseB daily=LS_PhaseB
New Load.254426600_3 Phases=1 Bus1=254426600.3 kV=13.8564 KW=3.0173 KVAR=0.99175 daily=LS_PhaseC daily=LS_PhaseC
New Load.254420966_2 Phases=1 Bus1=254420966.2 kV=13.8564 KW=2.6607 KVAR=0.87454 daily=LS_PhaseB daily=LS_PhaseB
New Load.254399481_3 Phases=1 Bus1=254399481.3 kV=13.8564 KW=3.4513 KVAR=1.1344 daily=LS_PhaseC daily=LS_PhaseC
New Load.260112453_3 Phases=1 Bus1=260112453.3 kV=13.8564 KW=25.8844 KVAR=8.5078 daily=LS_PhaseC daily=LS_PhaseC
New Load.254413389_1 Phases=1 Bus1=254413389.1 kV=13.8564 KW=13.3037 KVAR=4.3727 daily=LS_PhaseA daily=LS_PhaseA
New Load.254420921_2 Phases=1 Bus1=254420921.2 kV=13.8564 KW=6.6519 KVAR=2.1864 daily=LS_PhaseB daily=LS_PhaseB
New Load.254413205_1 Phases=1 Bus1=254413205.1 kV=13.8564 KW=8.6281 KVAR=2.8359 daily=LS_PhaseA daily=LS_PhaseA
New Load.435572195_2 Phases=1 Bus1=435572195.2 kV=13.8564 KW=13.3037 KVAR=4.3727 daily=LS_PhaseB daily=LS_PhaseB
New Load.254406028_2 Phases=1 Bus1=254406028.2 kV=13.8564 KW=6.6519 KVAR=2.1864 daily=LS_PhaseB daily=LS_PhaseB
New Load.254421081_3 Phases=1 Bus1=254421081.3 kV=13.8564 KW=22.6301 KVAR=7.4382 daily=LS_PhaseC daily=LS_PhaseC
New Load.254406088_2 Phases=1 Bus1=254406088.2 kV=13.8564 KW=19.9556 KVAR=6.5591 daily=LS_PhaseB daily=LS_PhaseB
New Load.254421106_3 Phases=1 Bus1=254421106.3 kV=13.8564 KW=25.8844 KVAR=8.5078 daily=LS_PhaseC daily=LS_PhaseC
New Load.254405858_3 Phases=1 Bus1=254405858.3 kV=13.8564 KW=7.5434 KVAR=2.4794 daily=LS_PhaseC daily=LS_PhaseC
New Load.254420619_2 Phases=1 Bus1=254420619.2 kV=13.8564 KW=50.2992 KVAR=16.5326 daily=LS_PhaseB daily=LS_PhaseB
New Load.254420619_3 Phases=1 Bus1=254420619.3 kV=13.8564 KW=44.3546 KVAR=14.5786 daily=LS_PhaseC daily=LS_PhaseC
New Load.254406332_3 Phases=1 Bus1=254406332.3 kV=13.8564 KW=57.5325 KVAR=18.91 daily=LS_PhaseC daily=LS_PhaseC
New Load.254412143_1 Phases=1 Bus1=254412143.1 kV=13.8564 KW=8.6281 KVAR=2.8359 daily=LS_PhaseA daily=LS_PhaseA
New Load.254405943_2 Phases=1 Bus1=254405943.2 kV=13.8564 KW=22.6301 KVAR=7.4382 daily=LS_PhaseB daily=LS_PhaseB
New Load.254413379_3 Phases=1 Bus1=254413379.3 kV=13.8564 KW=3.4513 KVAR=1.1344 daily=LS_PhaseC daily=LS_PhaseC
New Load.254412617_2 Phases=1 Bus1=254412617.2 kV=13.8564 KW=3.9911 KVAR=1.3118 daily=LS_PhaseB daily=LS_PhaseB
New Load.616213606_2 Phases=1 Bus1=616213606.2 kV=13.8564 KW=7.5434 KVAR=2.4794 daily=LS_PhaseB daily=LS_PhaseB
New Load.254421183_3 Phases=1 Bus1=254421183.3 kV=13.8564 KW=7.5434 KVAR=2.4794 daily=LS_PhaseC daily=LS_PhaseC
New Load.254405549_2 Phases=1 Bus1=254405549.2 kV=13.8564 KW=7.5434 KVAR=2.4794 daily=LS_PhaseB daily=LS_PhaseB
New Load.254427347_1 Phases=1 Bus1=254427347.1 kV=13.8564 KW=8.6281 KVAR=2.8359 daily=LS_PhaseA daily=LS_PhaseA
New Load.254412492_1 Phases=1 Bus1=254412492.1 kV=13.8564 KW=6.6519 KVAR=2.1864 daily=LS_PhaseA daily=LS_PhaseA
New Load.254406496_1 Phases=1 Bus1=254406496.1 kV=13.8564 KW=6.6519 KVAR=2.1864 daily=LS_PhaseA daily=LS_PhaseA
New Load.254406496_2 Phases=1 Bus1=254406496.2 kV=13.8564 KW=26.6074 KVAR=8.7454 daily=LS_PhaseB daily=LS_PhaseB
New Load.254406496_3 Phases=1 Bus1=254406496.3 kV=13.8564 KW=7.5434 KVAR=2.4794 daily=LS_PhaseC daily=LS_PhaseC
New Load.254412410_1 Phases=1 Bus1=254412410.1 kV=13.8564 KW=8.6281 KVAR=2.8359 daily=LS_PhaseA daily=LS_PhaseA
New Load.260111228_3 Phases=1 Bus1=260111228.3 kV=13.8564 KW=15.0867 KVAR=4.9588 daily=LS_PhaseC daily=LS_PhaseC
New Load.254413130_2 Phases=1 Bus1=254413130.2 kV=13.8564 KW=17.2563 KVAR=5.6719 daily=LS_PhaseB daily=LS_PhaseB
New Load.254406018_2 Phases=1 Bus1=254406018.2 kV=13.8564 KW=6.6519 KVAR=2.1864 daily=LS_PhaseB daily=LS_PhaseB
New Load.260111253_3 Phases=1 Bus1=260111253.3 kV=13.8564 KW=15.0867 KVAR=4.9588 daily=LS_PhaseC daily=LS_PhaseC
New Load.254405808_1 Phases=1 Bus1=254405808.1 kV=13.8564 KW=17.2563 KVAR=5.6719 daily=LS_PhaseA daily=LS_PhaseA
New Load.254412627_2 Phases=1 Bus1=254412627.2 kV=13.8564 KW=6.6519 KVAR=2.1864 daily=LS_PhaseB daily=LS_PhaseB
New Load.254420891_2 Phases=1 Bus1=254420891.2 kV=13.8564 KW=8.6281 KVAR=2.8359 daily=LS_PhaseB daily=LS_PhaseB
New Load.254412602_2 Phases=1 Bus1=254412602.2 kV=13.8564 KW=34.5126 KVAR=11.3437 daily=LS_PhaseB daily=LS_PhaseB
New Load.254426705_1 Phases=1 Bus1=254426705.1 kV=13.8564 KW=7.5434 KVAR=2.4794 daily=LS_PhaseA daily=LS_PhaseA
New Load.254426940_1 Phases=1 Bus1=254426940.1 kV=13.8564 KW=6.6519 KVAR=2.1864 daily=LS_PhaseA daily=LS_PhaseA
New Load.260112478_3 Phases=1 Bus1=260112478.3 kV=13.8564 KW=13.3037 KVAR=4.3727 daily=LS_PhaseC daily=LS_PhaseC
New Load.261177709_2 Phases=1 Bus1=261177709.2 kV=13.8564 KW=8.6281 KVAR=2.8359 daily=LS_PhaseB daily=LS_PhaseB
New Load.254406626_3 Phases=1 Bus1=254406626.3 kV=13.8564 KW=3.0173 KVAR=0.99175 daily=LS_PhaseC daily=LS_PhaseC
New Load.254426920_1 Phases=1 Bus1=254426920.1 kV=13.8564 KW=8.6281 KVAR=2.8359 daily=LS_PhaseA daily=LS_PhaseA
New Load.254420756_2 Phases=1 Bus1=254420756.2 kV=13.8564 KW=13.3037 KVAR=4.3727 daily=LS_PhaseB daily=LS_PhaseB
New Load.260110219_2 Phases=1 Bus1=260110219.2 kV=13.8564 KW=44.4344 KVAR=14.6049 daily=LS_PhaseB daily=LS_PhaseB
New Load.260937588_2 Phases=1 Bus1=260937588.2 kV=13.8564 KW=8.6281 KVAR=2.8359 daily=LS_PhaseB daily=LS_PhaseB
New Load.261177678_2 Phases=1 Bus1=261177678.2 kV=13.8564 KW=7.5434 KVAR=2.4794 daily=LS_PhaseB daily=LS_PhaseB
New Load.254406698_1 Phases=1 Bus1=254406698.1 kV=13.8564 KW=15.0867 KVAR=4.9588 daily=LS_PhaseA daily=LS_PhaseA
New Load.254406698_2 Phases=1 Bus1=254406698.2 kV=13.8564 KW=25.8844 KVAR=8.5078 daily=LS_PhaseB daily=LS_PhaseB
New Load.254406698_3 Phases=1 Bus1=254406698.3 kV=13.8564 KW=3.0173 KVAR=0.99175 daily=LS_PhaseC daily=LS_PhaseC
New Load.254426835_1 Phases=1 Bus1=254426835.1 kV=13.8564 KW=7.5434 KVAR=2.4794 daily=LS_PhaseA daily=LS_PhaseA
New Load.254412592_2 Phases=1 Bus1=254412592.2 kV=13.8564 KW=15.0867 KVAR=4.9588 daily=LS_PhaseB daily=LS_PhaseB
New Load.254427280_2 Phases=1 Bus1=254427280.2 kV=13.8564 KW=13.3037 KVAR=4.3727 daily=LS_PhaseB daily=LS_PhaseB
New Load.260944692_3 Phases=1 Bus1=260944692.3 kV=13.8564 KW=17.2563 KVAR=5.6719 daily=LS_PhaseC daily=LS_PhaseC
New Load.254420836_2 Phases=1 Bus1=254420836.2 kV=13.8564 KW=8.6281 KVAR=2.8359 daily=LS_PhaseB daily=LS_PhaseB
New Load.254399566_3 Phases=1 Bus1=254399566.3 kV=13.8564 KW=6.6519 KVAR=2.1864 daily=LS_PhaseC daily=LS_PhaseC
New Load.254427342_1 Phases=1 Bus1=254427342.1 kV=13.8564 KW=7.5434 KVAR=2.4794 daily=LS_PhaseA daily=LS_PhaseA
New Load.254412537_2 Phases=1 Bus1=254412537.2 kV=13.8564 KW=3.0173 KVAR=0.99175 daily=LS_PhaseB daily=LS_PhaseB
New Load.261303870_1 Phases=1 Bus1=261303870.1 kV=13.8564 KW=8.6281 KVAR=2.8359 daily=LS_PhaseA daily=LS_PhaseA
New Load.254412717_2 Phases=1 Bus1=254412717.2 kV=13.8564 KW=22.6301 KVAR=7.4382 daily=LS_PhaseB daily=LS_PhaseB
New Load.254420409_1 Phases=1 Bus1=254420409.1 kV=13.8564 KW=8.6281 KVAR=2.8359 daily=LS_PhaseA daily=LS_PhaseA
New Load.259222600_1 Phases=1 Bus1=259222600.1 kV=13.8564 KW=17.2563 KVAR=5.6719 daily=LS_PhaseA daily=LS_PhaseA
New Load.259414671_1 Phases=1 Bus1=259414671.1 kV=13.8564 KW=11.3151 KVAR=3.7191 daily=LS_PhaseA daily=LS_PhaseA
New Load.254420047_2 Phases=1 Bus1=254420047.2 kV=13.8564 KW=19.9556 KVAR=6.5591 daily=LS_PhaseB daily=LS_PhaseB
New Load.260893638_2 Phases=1 Bus1=260893638.2 kV=13.8564 KW=3.9911 KVAR=1.3118 daily=LS_PhaseB daily=LS_PhaseB
New Load.260110139_2 Phases=1 Bus1=260110139.2 kV=13.8564 KW=3.4513 KVAR=1.1344 daily=LS_PhaseB daily=LS_PhaseB
New Load.254412168_1 Phases=1 Bus1=254412168.1 kV=13.8564 KW=8.6281 KVAR=2.8359 daily=LS_PhaseA daily=LS_PhaseA
New Load.254426659_3 Phases=1 Bus1=254426659.3 kV=13.8564 KW=7.5434 KVAR=2.4794 daily=LS_PhaseC daily=LS_PhaseC
New Load.254405968_2 Phases=1 Bus1=254405968.2 kV=13.8564 KW=3.4513 KVAR=1.1344 daily=LS_PhaseB daily=LS_PhaseB
New Load.260112398_2 Phases=1 Bus1=260112398.2 kV=13.8564 KW=17.2563 KVAR=5.6719 daily=LS_PhaseB daily=LS_PhaseB
New Load.254427312_3 Phases=1 Bus1=254427312.3 kV=13.8564 KW=6.6519 KVAR=2.1864 daily=LS_PhaseC daily=LS_PhaseC
New Load.261192806_2 Phases=1 Bus1=261192806.2 kV=13.8564 KW=9.9778 KVAR=3.2795 daily=LS_PhaseB daily=LS_PhaseB
New Load.254413150_1 Phases=1 Bus1=254413150.1 kV=13.8564 KW=25.8844 KVAR=8.5078 daily=LS_PhaseA daily=LS_PhaseA
New Load.261013830_1 Phases=1 Bus1=261013830.1 kV=13.8564 KW=8.6281 KVAR=2.8359 daily=LS_PhaseA daily=LS_PhaseA
New Load.254412397_2 Phases=1 Bus1=254412397.2 kV=13.8564 KW=8.6281 KVAR=2.8359 daily=LS_PhaseB daily=LS_PhaseB
New Load.260112468_3 Phases=1 Bus1=260112468.3 kV=13.8564 KW=50.2992 KVAR=16.5326 daily=LS_PhaseC daily=LS_PhaseC
New Load.254420614_2 Phases=1 Bus1=254420614.2 kV=13.8564 KW=44.3546 KVAR=14.5786 daily=LS_PhaseB daily=LS_PhaseB
New Load.254412919_3 Phases=1 Bus1=254412919.3 kV=13.8564 KW=57.5325 KVAR=18.91 daily=LS_PhaseC daily=LS_PhaseC
New Load.254426660_3 Phases=1 Bus1=254426660.3 kV=13.8564 KW=6.6519 KVAR=2.1864 daily=LS_PhaseC daily=LS_PhaseC
New Load.259547598_2 Phases=1 Bus1=259547598.2 kV=13.8564 KW=7.5434 KVAR=2.4794 daily=LS_PhaseB daily=LS_PhaseB
New Load.254413033_3 Phases=1 Bus1=254413033.3 kV=13.8564 KW=13.3037 KVAR=4.3727 daily=LS_PhaseC daily=LS_PhaseC
New Load.254406003_2 Phases=1 Bus1=254406003.2 kV=13.8564 KW=7.5434 KVAR=2.4794 daily=LS_PhaseB daily=LS_PhaseB
New Load.435571456_1 Phases=1 Bus1=435571456.1 kV=13.8564 KW=7.5434 KVAR=2.4794 daily=LS_PhaseA daily=LS_PhaseA
New Load.254421050_3 Phases=1 Bus1=254421050.3 kV=13.8564 KW=6.6519 KVAR=2.1864 daily=LS_PhaseC daily=LS_PhaseC
New Load.260110159_2 Phases=1 Bus1=260110159.2 kV=13.8564 KW=7.5434 KVAR=2.4794 daily=LS_PhaseB daily=LS_PhaseB
New Load.254420666_2 Phases=1 Bus1=254420666.2 kV=13.8564 KW=5.9867 KVAR=1.9677 daily=LS_PhaseB daily=LS_PhaseB
New Load.254406307_3 Phases=1 Bus1=254406307.3 kV=13.8564 KW=7.7653 KVAR=2.5523 daily=LS_PhaseC daily=LS_PhaseC
New Load.261177694_2 Phases=1 Bus1=261177694.2 kV=13.8564 KW=7.5434 KVAR=2.4794 daily=LS_PhaseB daily=LS_PhaseB
New Load.261059305_2 Phases=1 Bus1=261059305.2 kV=13.8564 KW=15.0867 KVAR=4.9588 daily=LS_PhaseB daily=LS_PhaseB
New Load.261303895_2 Phases=1 Bus1=261303895.2 kV=13.8564 KW=34.5126 KVAR=11.3437 daily=LS_PhaseB daily=LS_PhaseB
New Load.254405544_3 Phases=1 Bus1=254405544.3 kV=13.8564 KW=6.6519 KVAR=2.1864 daily=LS_PhaseC daily=LS_PhaseC
New Load.254406038_2 Phases=1 Bus1=254406038.2 kV=13.8564 KW=2.6607 KVAR=0.87454 daily=LS_PhaseB daily=LS_PhaseB
New Load.435572943_1 Phases=1 Bus1=435572943.1 kV=13.8564 KW=8.6281 KVAR=2.8359 daily=LS_PhaseA daily=LS_PhaseA
New Load.254399540_1 Phases=1 Bus1=254399540.1 kV=13.8564 KW=13.3037 KVAR=4.3727 daily=LS_PhaseA daily=LS_PhaseA
New Load.261072116_1 Phases=1 Bus1=261072116.1 kV=13.8564 KW=25.8844 KVAR=8.5078 daily=LS_PhaseA daily=LS_PhaseA
New Load.254406450_2 Phases=1 Bus1=254406450.2 kV=13.8564 KW=19.9556 KVAR=6.5591 daily=LS_PhaseB daily=LS_PhaseB
New Load.254412652_2 Phases=1 Bus1=254412652.2 kV=13.8564 KW=8.6281 KVAR=2.8359 daily=LS_PhaseB daily=LS_PhaseB
New Load.260113648_3 Phases=1 Bus1=260113648.3 kV=13.8564 KW=17.2563 KVAR=5.6719 daily=LS_PhaseC daily=LS_PhaseC
New Load.254412452_1 Phases=1 Bus1=254412452.1 kV=13.8564 KW=7.5434 KVAR=2.4794 daily=LS_PhaseA daily=LS_PhaseA
New Load.261072157_3 Phases=1 Bus1=261072157.3 kV=13.8564 KW=7.5434 KVAR=2.4794 daily=LS_PhaseC daily=LS_PhaseC
New Load.254420528_3 Phases=1 Bus1=254420528.3 kV=13.8564 KW=6.6519 KVAR=2.1864 daily=LS_PhaseC daily=LS_PhaseC
New Load.254405768_1 Phases=1 Bus1=254405768.1 kV=13.8564 KW=8.6281 KVAR=2.8359 daily=LS_PhaseA daily=LS_PhaseA
New Load.254420414_1 Phases=1 Bus1=254420414.1 kV=13.8564 KW=6.6519 KVAR=2.1864 daily=LS_PhaseA daily=LS_PhaseA
New Load.254426865_1 Phases=1 Bus1=254426865.1 kV=13.8564 KW=6.6519 KVAR=2.1864 daily=LS_PhaseA daily=LS_PhaseA
New Load.254413008_2 Phases=1 Bus1=254413008.2 kV=13.8564 KW=6.6519 KVAR=2.1864 daily=LS_PhaseB daily=LS_PhaseB
New Load.254412754_1 Phases=1 Bus1=254412754.1 kV=13.8564 KW=8.6281 KVAR=2.8359 daily=LS_PhaseA daily=LS_PhaseA
New Load.260113768_1 Phases=1 Bus1=260113768.1 kV=13.8564 KW=7.5434 KVAR=2.4794 daily=LS_PhaseA daily=LS_PhaseA
New Load.260113768_2 Phases=1 Bus1=260113768.2 kV=13.8564 KW=75.4337 KVAR=24.7939 daily=LS_PhaseB daily=LS_PhaseB
New Load.260113768_3 Phases=1 Bus1=260113768.3 kV=13.8564 KW=66.5186 KVAR=21.8636 daily=LS_PhaseC daily=LS_PhaseC
New Load.254420272_1 Phases=1 Bus1=254420272.1 kV=13.8564 KW=86.2814 KVAR=28.3593 daily=LS_PhaseA daily=LS_PhaseA
New Load.254420092_1 Phases=1 Bus1=254420092.1 kV=13.8564 KW=7.5434 KVAR=2.4794 daily=LS_PhaseA daily=LS_PhaseA
New Load.254405693_3 Phases=1 Bus1=254405693.3 kV=13.8564 KW=7.5434 KVAR=2.4794 daily=LS_PhaseC daily=LS_PhaseC
New Load.254420651_2 Phases=1 Bus1=254420651.2 kV=13.8564 KW=6.6519 KVAR=2.1864 daily=LS_PhaseB daily=LS_PhaseB
New Load.254406631_2 Phases=1 Bus1=254406631.2 kV=13.8564 KW=7.5434 KVAR=2.4794 daily=LS_PhaseB daily=LS_PhaseB
New Load.254412188_1 Phases=1 Bus1=254412188.1 kV=13.8564 KW=8.6281 KVAR=2.8359 daily=LS_PhaseA daily=LS_PhaseA
New Load.260864302_3 Phases=1 Bus1=260864302.3 kV=13.8564 KW=17.2563 KVAR=5.6719 daily=LS_PhaseC daily=LS_PhaseC
New Load.254405888_2 Phases=1 Bus1=254405888.2 kV=13.8564 KW=7.5434 KVAR=2.4794 daily=LS_PhaseB daily=LS_PhaseB
New Load.699926464_2 Phases=1 Bus1=699926464.2 kV=13.8564 KW=17.2563 KVAR=5.6719 daily=LS_PhaseB daily=LS_PhaseB
New Load.254421171_2 Phases=1 Bus1=254421171.2 kV=13.8564 KW=15.0867 KVAR=4.9588 daily=LS_PhaseB daily=LS_PhaseB
New Load.260871301_1 Phases=1 Bus1=260871301.1 kV=13.8564 KW=2.6607 KVAR=0.87454 daily=LS_PhaseA daily=LS_PhaseA
New Load.260871301_2 Phases=1 Bus1=260871301.2 kV=13.8564 KW=6.6519 KVAR=2.1864 daily=LS_PhaseB daily=LS_PhaseB
New Load.260871301_3 Phases=1 Bus1=260871301.3 kV=13.8564 KW=3.9911 KVAR=1.3118 daily=LS_PhaseC daily=LS_PhaseC
New Load.260111258_3 Phases=1 Bus1=260111258.3 kV=13.8564 KW=6.6519 KVAR=2.1864 daily=LS_PhaseC daily=LS_PhaseC
New Load.254413028_3 Phases=1 Bus1=254413028.3 kV=13.8564 KW=6.6519 KVAR=2.1864 daily=LS_PhaseC daily=LS_PhaseC
New Load.254412288_2 Phases=1 Bus1=254412288.2 kV=13.8564 KW=15.0867 KVAR=4.9588 daily=LS_PhaseB daily=LS_PhaseB
New Load.254406230_3 Phases=1 Bus1=254406230.3 kV=13.8564 KW=8.6281 KVAR=2.8359 daily=LS_PhaseC daily=LS_PhaseC
New Load.254426915_1 Phases=1 Bus1=254426915.1 kV=13.8564 KW=13.3037 KVAR=4.3727 daily=LS_PhaseA daily=LS_PhaseA
New Load.254412482_1 Phases=1 Bus1=254412482.1 kV=13.8564 KW=8.6281 KVAR=2.8359 daily=LS_PhaseA daily=LS_PhaseA
New Load.254412442_1 Phases=1 Bus1=254412442.1 kV=13.8564 KW=4.526 KVAR=1.4876 daily=LS_PhaseA daily=LS_PhaseA
New Load.254405838_1 Phases=1 Bus1=254405838.1 kV=13.8564 KW=8.6281 KVAR=2.8359 daily=LS_PhaseA daily=LS_PhaseA
New Load.254412774_1 Phases=1 Bus1=254412774.1 kV=13.8564 KW=13.3037 KVAR=4.3727 daily=LS_PhaseA daily=LS_PhaseA
New Load.254405963_2 Phases=1 Bus1=254405963.2 kV=13.8564 KW=6.6519 KVAR=2.1864 daily=LS_PhaseB daily=LS_PhaseB
New Load.254421249_1 Phases=1 Bus1=254421249.1 kV=13.8564 KW=8.6281 KVAR=2.8359 daily=LS_PhaseA daily=LS_PhaseA
New Load.260113708_3 Phases=1 Bus1=260113708.3 kV=13.8564 KW=7.5434 KVAR=2.4794 daily=LS_PhaseC daily=LS_PhaseC
New Load.254405883_2 Phases=1 Bus1=254405883.2 kV=13.8564 KW=6.6519 KVAR=2.1864 daily=LS_PhaseB daily=LS_PhaseB
New Load.254420876_3 Phases=1 Bus1=254420876.3 kV=13.8564 KW=7.5434 KVAR=2.4794 daily=LS_PhaseC daily=LS_PhaseC
New Load.254420010_1 Phases=1 Bus1=254420010.1 kV=13.8564 KW=34.5126 KVAR=11.3437 daily=LS_PhaseA daily=LS_PhaseA
New Load.254420167_1 Phases=1 Bus1=254420167.1 kV=13.8564 KW=19.9556 KVAR=6.5591 daily=LS_PhaseA daily=LS_PhaseA
New Load.260113753_1 Phases=1 Bus1=260113753.1 kV=13.8564 KW=13.3037 KVAR=4.3727 daily=LS_PhaseA daily=LS_PhaseA
New Load.260113753_2 Phases=1 Bus1=260113753.2 kV=13.8564 KW=13.3037 KVAR=4.3727 daily=LS_PhaseB daily=LS_PhaseB
New Load.260113753_3 Phases=1 Bus1=260113753.3 kV=13.8564 KW=19.9556 KVAR=6.5591 daily=LS_PhaseC daily=LS_PhaseC
New Load.254420911_2 Phases=1 Bus1=254420911.2 kV=13.8564 KW=7.5434 KVAR=2.4794 daily=LS_PhaseB daily=LS_PhaseB
New Load.254420761_2 Phases=1 Bus1=254420761.2 kV=13.8564 KW=6.6519 KVAR=2.1864 daily=LS_PhaseB daily=LS_PhaseB
New Load.260979245_2 Phases=1 Bus1=260979245.2 kV=13.8564 KW=7.5434 KVAR=2.4794 daily=LS_PhaseB daily=LS_PhaseB
New Load.254427442_3 Phases=1 Bus1=254427442.3 kV=13.8564 KW=6.6519 KVAR=2.1864 daily=LS_PhaseC daily=LS_PhaseC
New Load.254420429_1 Phases=1 Bus1=254420429.1 kV=13.8564 KW=8.6281 KVAR=2.8359 daily=LS_PhaseA daily=LS_PhaseA
New Load.435572108_2 Phases=1 Bus1=435572108.2 kV=13.8564 KW=26.6074 KVAR=8.7454 daily=LS_PhaseB daily=LS_PhaseB
New Load.254413419_1 Phases=1 Bus1=254413419.1 kV=13.8564 KW=19.9556 KVAR=6.5591 daily=LS_PhaseA daily=LS_PhaseA
New Load.260112408_2 Phases=1 Bus1=260112408.2 kV=13.8564 KW=15.0867 KVAR=4.9588 daily=LS_PhaseB daily=LS_PhaseB
New Load.254412968_1 Phases=1 Bus1=254412968.1 kV=13.8564 KW=6.6519 KVAR=2.1864 daily=LS_PhaseA daily=LS_PhaseA
New Load.254412968_2 Phases=1 Bus1=254412968.2 kV=13.8564 KW=17.2563 KVAR=5.6719 daily=LS_PhaseB daily=LS_PhaseB
New Load.254412968_3 Phases=1 Bus1=254412968.3 kV=13.8564 KW=25.8844 KVAR=8.5078 daily=LS_PhaseC daily=LS_PhaseC
New Load.254426760_1 Phases=1 Bus1=254426760.1 kV=13.8564 KW=7.5434 KVAR=2.4794 daily=LS_PhaseA daily=LS_PhaseA
New Load.260862018_2 Phases=1 Bus1=260862018.2 kV=13.8564 KW=3.9911 KVAR=1.3118 daily=LS_PhaseB daily=LS_PhaseB
New Load.260111238_3 Phases=1 Bus1=260111238.3 kV=13.8564 KW=4.526 KVAR=1.4876 daily=LS_PhaseC daily=LS_PhaseC
New Load.254412233_2 Phases=1 Bus1=254412233.2 kV=13.8564 KW=3.9911 KVAR=1.3118 daily=LS_PhaseB daily=LS_PhaseB
New Load.259248782_1 Phases=1 Bus1=259248782.1 kV=13.8564 KW=5.1769 KVAR=1.7016 daily=LS_PhaseA daily=LS_PhaseA
New Load.259248782_2 Phases=1 Bus1=259248782.2 kV=13.8564 KW=7.5434 KVAR=2.4794 daily=LS_PhaseB daily=LS_PhaseB
New Load.259248782_3 Phases=1 Bus1=259248782.3 kV=13.8564 KW=6.6519 KVAR=2.1864 daily=LS_PhaseC daily=LS_PhaseC
New Load.254406063_2 Phases=1 Bus1=254406063.2 kV=13.8564 KW=7.5434 KVAR=2.4794 daily=LS_PhaseB daily=LS_PhaseB
New Load.254420675_2 Phases=1 Bus1=254420675.2 kV=13.8564 KW=6.6519 KVAR=2.1864 daily=LS_PhaseB daily=LS_PhaseB
New Load.260113733_3 Phases=1 Bus1=260113733.3 kV=13.8564 KW=8.6281 KVAR=2.8359 daily=LS_PhaseC daily=LS_PhaseC
New Load.261103821_1 Phases=1 Bus1=261103821.1 kV=13.8564 KW=15.0867 KVAR=4.9588 daily=LS_PhaseA daily=LS_PhaseA
New Load.254412732_1 Phases=1 Bus1=254412732.1 kV=13.8564 KW=8.6281 KVAR=2.8359 daily=LS_PhaseA daily=LS_PhaseA
New Load.259131190_1 Phases=1 Bus1=259131190.1 kV=13.8564 KW=6.6519 KVAR=2.1864 daily=LS_PhaseA daily=LS_PhaseA
New Load.259131190_2 Phases=1 Bus1=259131190.2 kV=13.8564 KW=13.3037 KVAR=4.3727 daily=LS_PhaseB daily=LS_PhaseB
New Load.259131190_3 Phases=1 Bus1=259131190.3 kV=13.8564 KW=15.0867 KVAR=4.9588 daily=LS_PhaseC daily=LS_PhaseC
New Load.254405998_2 Phases=1 Bus1=254405998.2 kV=13.8564 KW=8.6281 KVAR=2.8359 daily=LS_PhaseB daily=LS_PhaseB
New Load.261013805_1 Phases=1 Bus1=261013805.1 kV=13.8564 KW=8.6281 KVAR=2.8359 daily=LS_PhaseA daily=LS_PhaseA
New Load.254412682_3 Phases=1 Bus1=254412682.3 kV=13.8564 KW=15.0867 KVAR=4.9588 daily=LS_PhaseC daily=LS_PhaseC
New Load.254427175_3 Phases=1 Bus1=254427175.3 kV=13.8564 KW=17.2563 KVAR=5.6719 daily=LS_PhaseC daily=LS_PhaseC
New Load.254426730_1 Phases=1 Bus1=254426730.1 kV=13.8564 KW=6.6519 KVAR=2.1864 daily=LS_PhaseA daily=LS_PhaseA
New Load.435571706_2 Phases=1 Bus1=435571706.2 kV=13.8564 KW=6.6519 KVAR=2.1864 daily=LS_PhaseB daily=LS_PhaseB
New Load.254426645_3 Phases=1 Bus1=254426645.3 kV=13.8564 KW=6.6519 KVAR=2.1864 daily=LS_PhaseC daily=LS_PhaseC
New Load.254420212_1 Phases=1 Bus1=254420212.1 kV=13.8564 KW=6.6519 KVAR=2.1864 daily=LS_PhaseA daily=LS_PhaseA
New Load.254412522_2 Phases=1 Bus1=254412522.2 kV=13.8564 KW=6.6519 KVAR=2.1864 daily=LS_PhaseB daily=LS_PhaseB
New Load.260113582_1 Phases=1 Bus1=260113582.1 kV=13.8564 KW=13.3037 KVAR=4.3727 daily=LS_PhaseA daily=LS_PhaseA
New Load.254405509_3 Phases=1 Bus1=254405509.3 kV=13.8564 KW=7.5434 KVAR=2.4794 daily=LS_PhaseC daily=LS_PhaseC
New Load.254426610_3 Phases=1 Bus1=254426610.3 kV=13.8564 KW=6.6519 KVAR=2.1864 daily=LS_PhaseC daily=LS_PhaseC
New Load.259368732_1 Phases=1 Bus1=259368732.1 kV=13.8564 KW=3.0173 KVAR=0.99175 daily=LS_PhaseA daily=LS_PhaseA
New Load.254412178_2 Phases=1 Bus1=254412178.2 kV=13.8564 KW=2.6607 KVAR=0.87454 daily=LS_PhaseB daily=LS_PhaseB
New Load.254421001_3 Phases=1 Bus1=254421001.3 kV=13.8564 KW=3.4513 KVAR=1.1344 daily=LS_PhaseC daily=LS_PhaseC
New Load.261041358_2 Phases=1 Bus1=261041358.2 kV=13.8564 KW=22.6301 KVAR=7.4382 daily=LS_PhaseB daily=LS_PhaseB
New Load.254405611_3 Phases=1 Bus1=254405611.3 kV=13.8564 KW=6.6519 KVAR=2.1864 daily=LS_PhaseC daily=LS_PhaseC
New Load.254413180_1 Phases=1 Bus1=254413180.1 kV=13.8564 KW=7.5434 KVAR=2.4794 daily=LS_PhaseA daily=LS_PhaseA
New Load.254406683_3 Phases=1 Bus1=254406683.3 kV=13.8564 KW=5.1769 KVAR=1.7016 daily=LS_PhaseC daily=LS_PhaseC
New Load.472630180_2 Phases=1 Bus1=472630180.2 kV=13.8564 KW=50.2992 KVAR=16.5326 daily=LS_PhaseB daily=LS_PhaseB
New Load.254420951_2 Phases=1 Bus1=254420951.2 kV=13.8564 KW=44.3546 KVAR=14.5786 daily=LS_PhaseB daily=LS_PhaseB
New Load.260113637_3 Phases=1 Bus1=260113637.3 kV=13.8564 KW=57.5325 KVAR=18.91 daily=LS_PhaseC daily=LS_PhaseC
New Load.254412441_1 Phases=1 Bus1=254412441.1 kV=13.8564 KW=7.5434 KVAR=2.4794 daily=LS_PhaseA daily=LS_PhaseA
New Load.254420751_2 Phases=1 Bus1=254420751.2 kV=13.8564 KW=6.6519 KVAR=2.1864 daily=LS_PhaseB daily=LS_PhaseB
...
